/*--------------------------------*- C++ -*----------------------------------*\
  =========                 |
  \\      /  F ield         | OpenFOAM: The Open Source CFD Toolbox
   \\    /   O peration     | Website:  https://openfoam.org
    \\  /    A nd           | Version:  9
     \\/     M anipulation  |
\*---------------------------------------------------------------------------*/
FoamFile
{
    format      ascii;
    class       polyBoundaryMesh;
    location    "constant/polyMesh";
    object      boundary;
}
// * * * * * * * * * * * * * * * * * * * * * * * * * * * * * * * * * * * * * //

7
(
    inlet
    {
        type            patch;
        nFaces          15;
        startFace       24078;
    }
    wallIn
    {
        type            wall;
        inGroups        List<word> 1(wall);
        nFaces          130;
        startFace       24093;
    }
    wallOut
    {
        type            wall;
        inGroups        List<word> 1(wall);
        nFaces          37;
        startFace       24223;
    }
    atmosphere
    {
        type            patch;
        nFaces          237;
        startFace       24260;
    }
    outlet
    {
        type            patch;
        nFaces          55;
        startFace       24497;
    }
    symmetry
    {
        type            symmetryPlane;
        inGroups        List<word> 1(symmetryPlane);
        nFaces          290;
        startFace       24552;
    }
    defaultFaces
    {
        type            empty;
        inGroups        List<word> 1(empty);
        nFaces          24460;
        startFace       24842;
    }
)

// ************************************************************************* //
